Input Parameters:
   integrator                     = md
   tinit                          = 0
   dt                             = 0.002
   nsteps                         = 5000000
   init-step                      = 0
   simulation-part                = 1
   mts                            = false
   comm-mode                      = Linear
   nstcomm                        = 1000
   bd-fric                        = 0
   ld-seed                        = -1377964033
   emtol                          = 10
   emstep                         = 0.01
   niter                          = 20
   fcstep                         = 0
   nstcgsteep                     = 1000
   nbfgscorr                      = 10
   rtpi                           = 0.05
   nstxout                        = 0
   nstvout                        = 0
   nstfout                        = 0
   nstlog                         = 5000
   nstcalcenergy                  = 100
   nstenergy                      = 5000
   nstxout-compressed             = 500
   compressed-x-precision         = 1000
   cutoff-scheme                  = Verlet
   nstlist                        = 10
   pbc                            = xyz
   periodic-molecules             = false
   verlet-buffer-tolerance        = 0.005
   rlist                          = 1.034
   coulombtype                    = Cut-off
   coulomb-modifier               = Potential-shift
   rcoulomb-switch                = 0
   rcoulomb                       = 1
   epsilon-r                      = 1
   epsilon-rf                     = inf
   vdw-type                       = Cut-off
   vdw-modifier                   = Potential-shift
   rvdw-switch                    = 0
   rvdw                           = 1
   DispCorr                       = No
   table-extension                = 1
   fourierspacing                 = 0.12
   fourier-nx                     = 0
   fourier-ny                     = 0
   fourier-nz                     = 0
   pme-order                      = 4
   ewald-rtol                     = 1e-05
   ewald-rtol-lj                  = 0.001
   lj-pme-comb-rule               = Geometric
   ewald-geometry                 = 0
   epsilon-surface                = 0
   tcoupl                         = V-rescale
   nsttcouple                     = 10
   nh-chain-length                = 0
   print-nose-hoover-chain-variables = false
   pcoupl                         = No
   pcoupltype                     = Isotropic
   nstpcouple                     = -1
   tau-p                          = 1
   compressibility (3x3):
      compressibility[    0]={ 0.00000e+00,  0.00000e+00,  0.00000e+00}
      compressibility[    1]={ 0.00000e+00,  0.00000e+00,  0.00000e+00}
      compressibility[    2]={ 0.00000e+00,  0.00000e+00,  0.00000e+00}
   ref-p (3x3):
      ref-p[    0]={ 0.00000e+00,  0.00000e+00,  0.00000e+00}
      ref-p[    1]={ 0.00000e+00,  0.00000e+00,  0.00000e+00}
      ref-p[    2]={ 0.00000e+00,  0.00000e+00,  0.00000e+00}
   refcoord-scaling               = No
   posres-com (3):
      posres-com[0]= 0.00000e+00
      posres-com[1]= 0.00000e+00
      posres-com[2]= 0.00000e+00
   posres-comB (3):
      posres-comB[0]= 0.00000e+00
      posres-comB[1]= 0.00000e+00
      posres-comB[2]= 0.00000e+00
   QMMM                           = false
qm-opts:
   ngQM                           = 0
   constraint-algorithm           = Lincs
   continuation                   = false
   Shake-SOR                      = false
   shake-tol                      = 0.0001
   lincs-order                    = 4
   lincs-iter                     = 4
   lincs-warnangle                = 30
   nwall                          = 0
   wall-type                      = 9-3
   wall-r-linpot                  = -1
   wall-atomtype[0]               = -1
   wall-atomtype[1]               = -1
   wall-density[0]                = 0
   wall-density[1]                = 0
   wall-ewald-zfac                = 3
   pull                           = false
   awh                            = false
   rotation                       = false
   interactiveMD                  = false
   disre                          = No
   disre-weighting                = Conservative
   disre-mixed                    = false
   dr-fc                          = 1000
   dr-tau                         = 0
   nstdisreout                    = 100
   orire-fc                       = 0
   orire-tau                      = 0
   nstorireout                    = 100
   free-energy                    = no
   cos-acceleration               = 0
   deform (3x3):
      deform[    0]={ 0.00000e+00,  0.00000e+00,  0.00000e+00}
      deform[    1]={ 0.00000e+00,  0.00000e+00,  0.00000e+00}
      deform[    2]={ 0.00000e+00,  0.00000e+00,  0.00000e+00}
   simulated-tempering            = false
   swapcoords                     = no
   userint1                       = 0
   userint2                       = 0
   userint3                       = 0
   userint4                       = 0
   userreal1                      = 0
   userreal2                      = 0
   userreal3                      = 0
   userreal4                      = 0
   applied-forces:
     electric-field:
       x:
         E0                       = 0
         omega                    = 0
         t0                       = 0
         sigma                    = 0
       y:
         E0                       = 0
         omega                    = 0
         t0                       = 0
         sigma                    = 0
       z:
         E0                       = 0
         omega                    = 0
         t0                       = 0
         sigma                    = 0
     density-guided-simulation:
       active                     = false
       group                      = protein
       similarity-measure         = inner-product
       atom-spreading-weight      = unity
       force-constant             = 1e+09
       gaussian-transform-spreading-width = 0.2
       gaussian-transform-spreading-range-in-multiples-of-width = 4
       reference-density-filename = reference.mrc
       nst                        = 1
       normalize-densities        = true
       adaptive-force-scaling     = false
       adaptive-force-scaling-time-constant = 4
grpopts:
   nrdf:          51
   ref-t:         300
   tau-t:         0.1
annealing:          No
annealing-npoints:           0
   acc:	           0           0           0
   nfreeze:           N           N           N
   energygrp-flags[  0]: 0

The -nsteps functionality is deprecated, and may be removed in a future version. Consider using gmx convert-tpr -nsteps or changing the appropriate .mdp file field.

Overriding nsteps with value passed on the command line: 2500000 steps, 5e+03 ps
Changing nstlist from 10 to 100, rlist from 1.034 to 1.309

1 GPU selected for this run.
Mapping of GPU IDs to the 1 GPU task in the 1 rank on this node:
  PP:0
PP tasks will do (non-perturbed) short-ranged interactions on the GPU
PP task will update and constrain coordinates on the CPU
Using 1 MPI process
Using 1 OpenMP thread

NOTE: Thread affinity was not set.
System total charge: -0.000
Potential shift: LJ r^-12: -1.000e+00 r^-6: -1.000e+00, Coulomb -1e+00
Generated table with 1154 data points for 1-4 COUL.
Tabscale = 500 points/nm
Generated table with 1154 data points for 1-4 LJ6.
Tabscale = 500 points/nm
Generated table with 1154 data points for 1-4 LJ12.
Tabscale = 500 points/nm

Using GPU 8x8 nonbonded short-range kernels

Using a dual 8x8 pair-list setup updated with dynamic, rolling pruning:
  outer list: updated every 100 steps, buffer 0.309 nm, rlist 1.309 nm
  inner list: updated every   4 steps, buffer 0.011 nm, rlist 1.011 nm
At tolerance 0.005 kJ/mol/ps per atom, equivalent classical 1x1 list would be:
  outer list: updated every 100 steps, buffer 0.390 nm, rlist 1.390 nm
  inner list: updated every   4 steps, buffer 0.018 nm, rlist 1.018 nm

Using Lorentz-Berthelot Lennard-Jones combination rule
Removing pbc first time

Initializing LINear Constraint Solver

The number of constraints is 12

There are: 22 Atoms

Constraining the starting coordinates (step 0)

Constraining the coordinates at t0-dt (step 0)
Center of mass motion removal mode is Linear
We have the following groups for center of mass motion removal:
  0:  rest
RMS relative constraint deviation after constraining: 5.05e-07
Initial temperature: 291.816 K

PLUMED: PLUMED is starting
PLUMED: Version: 2.9.0-dev (git: a42f79bef-dirty) compiled on Mar 21 2022 at 00:05:45
PLUMED: Please cite these papers when using PLUMED [1][2]
PLUMED: For further information see the PLUMED web page at http://www.plumed.org
PLUMED: Root: /home/lbonati@iit.local/software/plumed/mpi-master/lib/plumed
PLUMED: For installed feature, see /home/lbonati@iit.local/software/plumed/mpi-master/lib/plumed/src/config/config.txt
PLUMED: Molecular dynamics engine: gromacs
PLUMED: Precision of reals: 4
PLUMED: Running over 1 node
PLUMED: Number of threads: 1
PLUMED: Cache line size: 512
PLUMED: Number of atoms: 22
PLUMED: File suffix:
PLUMED: FILE: plumed.dat
PLUMED: Action MOLINFO
PLUMED:   with label @0
PLUMED:   pdb file named input.ala2.pdb contains 1 chains
PLUMED:   chain named   contains residues 1 to 3 and atoms 1 to 22
PLUMED: Action TORSION
PLUMED:   with label phi
PLUMED:   between atoms 5 7 9 15
PLUMED:   using periodic boundary conditions
PLUMED: Action TORSION
PLUMED:   with label psi
PLUMED:   between atoms 7 9 15 17
PLUMED:   using periodic boundary conditions
PLUMED: Action TORSION
PLUMED:   with label theta
PLUMED:   between atoms 6 5 7 9
PLUMED:   using periodic boundary conditions
PLUMED: Action TORSION
PLUMED:   with label xi
PLUMED:   between atoms 16 15 17 19
PLUMED:   using periodic boundary conditions
PLUMED: Action ENERGY
PLUMED:   with label ene
PLUMED:   Bibliography [3][4]
PLUMED: Action INCLUDE
PLUMED:   with label @6
PLUMED: FILE: ../plumed-distances.dat
PLUMED: Action DISTANCE
PLUMED:   with label d_2_5
PLUMED:   between atoms 2 5
PLUMED:   using periodic boundary conditions
PLUMED: Action DISTANCE
PLUMED:   with label d_2_6
PLUMED:   between atoms 2 6
PLUMED:   using periodic boundary conditions
PLUMED: Action DISTANCE
PLUMED:   with label d_2_7
PLUMED:   between atoms 2 7
PLUMED:   using periodic boundary conditions
PLUMED: Action DISTANCE
PLUMED:   with label d_2_9
PLUMED:   between atoms 2 9
PLUMED:   using periodic boundary conditions
PLUMED: Action DISTANCE
PLUMED:   with label d_2_11
PLUMED:   between atoms 2 11
PLUMED:   using periodic boundary conditions
PLUMED: Action DISTANCE
PLUMED:   with label d_2_15
PLUMED:   between atoms 2 15
PLUMED:   using periodic boundary conditions
PLUMED: Action DISTANCE
PLUMED:   with label d_2_16
PLUMED:   between atoms 2 16
PLUMED:   using periodic boundary conditions
PLUMED: Action DISTANCE
PLUMED:   with label d_2_17
PLUMED:   between atoms 2 17
PLUMED:   using periodic boundary conditions
PLUMED: Action DISTANCE
PLUMED:   with label d_2_19
PLUMED:   between atoms 2 19
PLUMED:   using periodic boundary conditions
PLUMED: Action DISTANCE
PLUMED:   with label d_5_6
PLUMED:   between atoms 5 6
PLUMED:   using periodic boundary conditions
PLUMED: Action DISTANCE
PLUMED:   with label d_5_7
PLUMED:   between atoms 5 7
PLUMED:   using periodic boundary conditions
PLUMED: Action DISTANCE
PLUMED:   with label d_5_9
PLUMED:   between atoms 5 9
PLUMED:   using periodic boundary conditions
PLUMED: Action DISTANCE
PLUMED:   with label d_5_11
PLUMED:   between atoms 5 11
PLUMED:   using periodic boundary conditions
PLUMED: Action DISTANCE
PLUMED:   with label d_5_15
PLUMED:   between atoms 5 15
PLUMED:   using periodic boundary conditions
PLUMED: Action DISTANCE
PLUMED:   with label d_5_16
PLUMED:   between atoms 5 16
PLUMED:   using periodic boundary conditions
PLUMED: Action DISTANCE
PLUMED:   with label d_5_17
PLUMED:   between atoms 5 17
PLUMED:   using periodic boundary conditions
PLUMED: Action DISTANCE
PLUMED:   with label d_5_19
PLUMED:   between atoms 5 19
PLUMED:   using periodic boundary conditions
PLUMED: Action DISTANCE
PLUMED:   with label d_6_7
PLUMED:   between atoms 6 7
PLUMED:   using periodic boundary conditions
PLUMED: Action DISTANCE
PLUMED:   with label d_6_9
PLUMED:   between atoms 6 9
PLUMED:   using periodic boundary conditions
PLUMED: Action DISTANCE
PLUMED:   with label d_6_11
PLUMED:   between atoms 6 11
PLUMED:   using periodic boundary conditions
PLUMED: Action DISTANCE
PLUMED:   with label d_6_15
PLUMED:   between atoms 6 15
PLUMED:   using periodic boundary conditions
PLUMED: Action DISTANCE
PLUMED:   with label d_6_16
PLUMED:   between atoms 6 16
PLUMED:   using periodic boundary conditions
PLUMED: Action DISTANCE
PLUMED:   with label d_6_17
PLUMED:   between atoms 6 17
PLUMED:   using periodic boundary conditions
PLUMED: Action DISTANCE
PLUMED:   with label d_6_19
PLUMED:   between atoms 6 19
PLUMED:   using periodic boundary conditions
PLUMED: Action DISTANCE
PLUMED:   with label d_7_9
PLUMED:   between atoms 7 9
PLUMED:   using periodic boundary conditions
PLUMED: Action DISTANCE
PLUMED:   with label d_7_11
PLUMED:   between atoms 7 11
PLUMED:   using periodic boundary conditions
PLUMED: Action DISTANCE
PLUMED:   with label d_7_15
PLUMED:   between atoms 7 15
PLUMED:   using periodic boundary conditions
PLUMED: Action DISTANCE
PLUMED:   with label d_7_16
PLUMED:   between atoms 7 16
PLUMED:   using periodic boundary conditions
PLUMED: Action DISTANCE
PLUMED:   with label d_7_17
PLUMED:   between atoms 7 17
PLUMED:   using periodic boundary conditions
PLUMED: Action DISTANCE
PLUMED:   with label d_7_19
PLUMED:   between atoms 7 19
PLUMED:   using periodic boundary conditions
PLUMED: Action DISTANCE
PLUMED:   with label d_9_11
PLUMED:   between atoms 9 11
PLUMED:   using periodic boundary conditions
PLUMED: Action DISTANCE
PLUMED:   with label d_9_15
PLUMED:   between atoms 9 15
PLUMED:   using periodic boundary conditions
PLUMED: Action DISTANCE
PLUMED:   with label d_9_16
PLUMED:   between atoms 9 16
PLUMED:   using periodic boundary conditions
PLUMED: Action DISTANCE
PLUMED:   with label d_9_17
PLUMED:   between atoms 9 17
PLUMED:   using periodic boundary conditions
PLUMED: Action DISTANCE
PLUMED:   with label d_9_19
PLUMED:   between atoms 9 19
PLUMED:   using periodic boundary conditions
PLUMED: Action DISTANCE
PLUMED:   with label d_11_15
PLUMED:   between atoms 11 15
PLUMED:   using periodic boundary conditions
PLUMED: Action DISTANCE
PLUMED:   with label d_11_16
PLUMED:   between atoms 11 16
PLUMED:   using periodic boundary conditions
PLUMED: Action DISTANCE
PLUMED:   with label d_11_17
PLUMED:   between atoms 11 17
PLUMED:   using periodic boundary conditions
PLUMED: Action DISTANCE
PLUMED:   with label d_11_19
PLUMED:   between atoms 11 19
PLUMED:   using periodic boundary conditions
PLUMED: Action DISTANCE
PLUMED:   with label d_15_16
PLUMED:   between atoms 15 16
PLUMED:   using periodic boundary conditions
PLUMED: Action DISTANCE
PLUMED:   with label d_15_17
PLUMED:   between atoms 15 17
PLUMED:   using periodic boundary conditions
PLUMED: Action DISTANCE
PLUMED:   with label d_15_19
PLUMED:   between atoms 15 19
PLUMED:   using periodic boundary conditions
PLUMED: Action DISTANCE
PLUMED:   with label d_16_17
PLUMED:   between atoms 16 17
PLUMED:   using periodic boundary conditions
PLUMED: Action DISTANCE
PLUMED:   with label d_16_19
PLUMED:   between atoms 16 19
PLUMED:   using periodic boundary conditions
PLUMED: Action DISTANCE
PLUMED:   with label d_17_19
PLUMED:   between atoms 17 19
PLUMED:   using periodic boundary conditions
PLUMED: END FILE: ../plumed-distances.dat
PLUMED: Action CUSTOM
PLUMED:   with label cv
PLUMED:   with arguments d_2_5 d_2_6 d_2_7 d_2_9 d_2_11 d_2_15 d_2_16 d_2_17 d_2_19 d_5_6 d_5_7 d_5_9 d_5_11 d_5_15 d_5_16 d_5_17 d_5_19 d_6_7 d_6_9 d_6_11 d_6_15 d_6_16 d_6_17 d_6_19 d_7_9 d_7_11 d_7_15 d_7_16 d_7_17 d_7_19 d_9_11 d_9_15 d_9_16 d_9_17 d_9_19 d_11_15 d_11_16 d_11_17 d_11_19 d_15_16 d_15_17 d_15_19 d_16_17 d_16_19 d_17_19
PLUMED:   with function : 0.000202*x0-0.082194*x1-0.000298*x2-0.212357*x3+0.187655*x4-0.042075*x5+0.062032*x6-0.021468*x7+0.124304*x8-0.060259*x9-0.002220*x10+0.072867*x11-0.047388*x12-0.043661*x13+0.022043*x14-0.002786*x15-0.029552*x16-0.030483*x17+0.523998*x18-0.333743*x19-0.112905*x20-0.066070*x21+0.022831*x22-0.163052*x23-0.314870*x24+0.256447*x25+0.101790*x26+0.214759*x27-0.035093*x28+0.057045*x29-0.205065*x30-0.085891*x31-0.334330*x32+0.046865*x33-0.035275*x34+0.018307*x35+0.202583*x36-0.043649*x37+0.072936*x38-0.035672*x39-0.015770*x40-0.061832*x41+0.029964*x42+0.021525*x43+0.001700*x44
PLUMED:   with variables : x0 x1 x2 x3 x4 x5 x6 x7 x8 x9 x10 x11 x12 x13 x14 x15 x16 x17 x18 x19 x20 x21 x22 x23 x24 x25 x26 x27 x28 x29 x30 x31 x32 x33 x34 x35 x36 x37 x38 x39 x40 x41 x42 x43 x44
PLUMED:   function as parsed by lepton: ((((((((((((((((((((((((((((((((((((((((((((0.000202*(x0))-(0.082194*(x1)))-(0.000298*(x2)))-(0.212357*(x3)))+(0.187655*(x4)))-(0.042075*(x5)))+(0.062032*(x6)))-(0.021468*(x7)))+(0.124304*(x8)))-(0.060259*(x9)))-(0.00222*(x10)))+(0.072867*(x11)))-(0.047388*(x12)))-(0.043661*(x13)))+(0.022043*(x14)))-(0.002786*(x15)))-(0.029552*(x16)))-(0.030483*(x17)))+(0.523998*(x18)))-(0.333743*(x19)))-(0.112905*(x20)))-(0.06607*(x21)))+(0.022831*(x22)))-(0.163052*(x23)))-(0.31487*(x24)))+(0.256447*(x25)))+(0.10179*(x26)))+(0.214759*(x27)))-(0.035093*(x28)))+(0.057045*(x29)))-(0.205065*(x30)))-(0.085891*(x31)))-(0.33433*(x32)))+(0.046865*(x33)))-(0.035275*(x34)))+(0.018307*(x35)))+(0.202583*(x36)))-(0.043649*(x37)))+(0.072936*(x38)))-(0.035672*(x39)))-(0.01577*(x40)))-(0.061832*(x41)))+(0.029964*(x42)))+(0.021525*(x43)))+(0.0017*(x44))
PLUMED:   derivatives as computed by lepton:
PLUMED:     0.000202
PLUMED:     -0.082194
PLUMED:     -0.000298
PLUMED:     -0.212357
PLUMED:     0.187655
PLUMED:     -0.042075
PLUMED:     0.062032
PLUMED:     -0.021468
PLUMED:     0.124304
PLUMED:     -0.060259
PLUMED:     -0.00222
PLUMED:     0.072867
PLUMED:     -0.047388
PLUMED:     -0.043661
PLUMED:     0.022043
PLUMED:     -0.002786
PLUMED:     -0.029552
PLUMED:     -0.030483
PLUMED:     0.523998
PLUMED:     -0.333743
PLUMED:     -0.112905
PLUMED:     -0.06607
PLUMED:     0.022831
PLUMED:     -0.163052
PLUMED:     -0.31487
PLUMED:     0.256447
PLUMED:     0.10179
PLUMED:     0.214759
PLUMED:     -0.035093
PLUMED:     0.057045
PLUMED:     -0.205065
PLUMED:     -0.085891
PLUMED:     -0.33433
PLUMED:     0.046865
PLUMED:     -0.035275
PLUMED:     0.018307
PLUMED:     0.202583
PLUMED:     -0.043649
PLUMED:     0.072936
PLUMED:     -0.035672
PLUMED:     -0.01577
PLUMED:     -0.061832
PLUMED:     0.029964
PLUMED:     0.021525
PLUMED:     0.0017
PLUMED: Action OPES_METAD
PLUMED:   with label opes
PLUMED:   with arguments cv
PLUMED:   added component to this action:  opes.bias
PLUMED:   added component to this action:  opes.rct
PLUMED:   added component to this action:  opes.zed
PLUMED:   added component to this action:  opes.neff
PLUMED:   added component to this action:  opes.nker
PLUMED:   temperature = 300
PLUMED:   beta = 0.400908
PLUMED:   depositing new kernels with PACE = 500
PLUMED:   expected BARRIER is 30
PLUMED:   using target distribution with BIASFACTOR gamma = 12.0272
PLUMED:   adaptive SIGMA will be used, with ADAPTIVE_SIGMA_STRIDE = 5000
PLUMED:     thus the first x kernel depositions will be skipped, x = ADAPTIVE_SIGMA_STRIDE/PACE = 10
PLUMED:   kernels are truncated with KERNELS_CUTOFF = 5.12209
PLUMED:   the value at cutoff is = 2.00891e-06
PLUMED:   regularization EPSILON = 2.00891e-06
PLUMED:   kernels will be compressed when closer than COMPRESSION_THRESHOLD = 1
PLUMED:   Bibliography: [5][6]
PLUMED: Action PRINT
PLUMED:   with label @54
PLUMED:   with stride 500
PLUMED:   with arguments phi psi theta xi ene d_2_5 d_2_6 d_2_7 d_2_9 d_2_11 d_2_15 d_2_16 d_2_17 d_2_19 d_5_6 d_5_7 d_5_9 d_5_11 d_5_15 d_5_16 d_5_17 d_5_19 d_6_7 d_6_9 d_6_11 d_6_15 d_6_16 d_6_17 d_6_19 d_7_9 d_7_11 d_7_15 d_7_16 d_7_17 d_7_19 d_9_11 d_9_15 d_9_16 d_9_17 d_9_19 d_11_15 d_11_16 d_11_17 d_11_19 d_15_16 d_15_17 d_15_19 d_16_17 d_16_19 d_17_19 cv opes.bias opes.rct opes.zed opes.neff opes.nker
PLUMED:   on file COLVAR
PLUMED:   with format  %g
PLUMED: Action ENDPLUMED
PLUMED:   with label @55
PLUMED: END FILE: plumed.dat
PLUMED: Timestep: 0.002000
PLUMED: KbT: 2.494339
PLUMED: Relevant bibliography:
PLUMED:   [1] The PLUMED consortium, Nat. Methods 16, 670 (2019)
PLUMED:   [2] Tribello, Bonomi, Branduardi, Camilloni, and Bussi, Comput. Phys. Commun. 185, 604 (2014)
PLUMED:   [3] Bartels and Karplus, J. Phys. Chem. B 102, 865 (1998)
PLUMED:   [4] Bonomi and Parrinello, J. Comp. Chem. 30, 1615 (2009)
PLUMED:   [5] M. Invernizzi and M. Parrinello, J. Phys. Chem. Lett. 11, 2731-2736 (2020)
PLUMED:   [6] M. Invernizzi and M. Parrinello, preprint arXiv:2201.09950 (2022)
PLUMED: Please read and cite where appropriate!
PLUMED: Finished setup
Started mdrun on rank 0 Wed Jul 20 16:38:47 2022

           Step           Time
              0        0.00000

   Energies (kJ/mol)
           Bond          Angle    Proper Dih.  Improper Dih.          LJ-14
    8.94525e+00    3.19694e+01    4.09897e+01    2.03912e+00    1.39291e+01
     Coulomb-14        LJ (SR)   Coulomb (SR)      Potential    Kinetic En.
    2.03974e+02   -6.24912e+00   -3.37056e+02   -4.14583e+01    6.57986e+01
    2.43403e+01    2.43403e+01    3.10343e+02    5.70138e+01    4.48027e-07

	<====  A V E R A G E S  ====>

	Statistics over 2500001 steps using 25001 frames

   Energies (kJ/mol)
           Bond          Angle    Proper Dih.  Improper Dih.          LJ-14
    1.41445e+01    4.11974e+01    4.76655e+01    2.99291e+00    1.39241e+01
     Coulomb-14        LJ (SR)   Coulomb (SR)      Potential    Kinetic En.
    1.92624e+02   -2.91854e+00   -3.32625e+02   -2.29954e+01    6.38304e+01
   Total Energy  Conserved En.    Temperature Pressure (bar)   Constr. rmsd
    4.08350e+01    1.61314e+03    3.01060e+02    1.76826e+00    0.00000e+00

   Total Virial (kJ/mol)
    1.94788e+01    1.00882e+00   -2.19377e-02
    1.00882e+00    1.89936e+01   -8.99288e-01
    1.45875e-01   -5.31760e-01    2.09438e+01

   Pressure (bar)
    2.52788e+00   -9.96736e-01   -5.67997e-03
   -9.96735e-01    1.77734e+00    1.03739e+00
   -2.07351e-01    5.95707e-01    9.99562e-01
