LAMMPS (23 Jun 2022)
#LAMMPS init file for NaCl dissociation in water
# ------------------------------- Initialization Section --------------------
units        real                            # A, fs, Kcal/mol
atom_style   full                            # Accepts positions, masses, bonds, angles, charges
pair_style lj/charmm/coul/long 9.0 10.0      # Classical LJ style potential + coulomb interaction with two cutoffs
bond_style  harmonic                         # Uses an harmonic potential around an equilibrium value for bonds
angle_style harmonic                         # Uses an harmonic potential around an equilibrium value for angles

# ------------------------------- Atom Definition Section -------------------
read_data    "../NaCl_216wat.data"           # Read from file the positions, masses, velocities, bonds and charges of the atoms
Reading data file ...
  orthogonal box = (0.12622049 0.12622049 0.12622049) to (18.47378 18.47378 18.47378)
  reading atoms ...
  650 atoms
  reading velocities ...
  650 velocities
  scanning bonds ...
  scanning angles ...
  reading bonds ...
  432 bonds
  reading angles ...
  216 angles
Finding 1-2 1-3 1-4 neighbors ...
     2 = max # of 1-2 neighbors
     1 = max # of 1-3 neighbors
     1 = max # of 1-4 neighbors
     2 = max # of special neighbors

group wat type  1  2                         # Define a group for the water molecules (types 1=O, 2=H)
648 atoms in group wat

# ------------------------------- Settings Section --------------------------

### TIP3P Potential Parameters --> Water ###
set type 1 charge -0.834                     # Set charge for O
Setting atom values ...
  216 settings made for charge
set type 2 charge  0.417                     # Set charge for H
Setting atom values ...
  432 settings made for charge
pair_coeff 1 1 0.1521 3.1507                 # Set O interaction parameters
pair_coeff 2 2 0.0460 0.4000                 # Set H interaction parameters
pair_coeff 1 2 0.0836 1.7753                 # Set O-H interaction parameters
bond_coeff  1 450 0.9572                     # Set O-H bond parameters
angle_coeff 1 55 104.52                      # Set H-O-H angle parameters
kspace_style pppm 1.0e-5                     # final npt relaxation
pair_coeff 3 3  0.3526418 2.1595384928       # Set Na interaction parameters
pair_coeff 4 4   0.0127850  4.8304528498     # Set Cl interaction parameter

# ------------------------------- Run Section -------------------------------

# The dump command is used to print output, here: atom-id, molecule-id, lammps-type, xyz coord, image-xyz (for PBC box)
dump         1 all custom 500 traj_unbiased.lammpstrj id mol type x y z ix iy iz

timestep     2.0                                       # fs

# The fix command is used to act on your system
fix          fxnvt all nvt temp 300.0 300.0 500.0      # 300K Nose-Hoover thermostat to sample the NVT canonical ensemble, tau = 500*dt
fix pl all plumed plumedfile plumed.dat outfile p.log  # Make LAMMPS aware that we want to use PLUMED! Load the plumed.dat input file
fix fRattleWat wat rattle 0.0001 10 0 b 1 a 1        # Fix bonds and angles of water molecules, allow to use longer dt and it's fine for us
       0 = # of size 2 clusters
       0 = # of size 3 clusters
       0 = # of size 4 clusters
     216 = # of frozen angles
  find clusters CPU = 0.001 seconds

# The thermo command computes the thermodynamic quantities we may be interested in, can specify which ones with thermo_style
thermo         500                                       # compute and print on screen every 500dt
thermo_style   custom step temp press epair etotal

run            2500000                                    # run the simualtion for N steps
PPPM initialization ...
  G vector (1/distance) = 0.30520329
  grid = 16 16 16
  stencil order = 5
  estimated absolute RMS force accuracy = 0.0030333252
  estimated relative force accuracy = 9.1347686e-06
  3d grid and FFT values/proc = 2475 256
Generated 5 of 6 mixed pair_coeff terms from arithmetic mixing rule
  update every 1 steps, delay 10 steps, check yes
Step          Temp          Press          E_pair         TotEng
0   306.42593     -1862.5084     -2545.2648     -2149.7637
Averages over the last 2501 of 5001 rows, steps 1250000 to 2500000:
Temp Press E_pair TotEng
300.027 924.183 -2313.8 -1926.72
Loop time of 4325.6 on 16 procs for 2500000 steps with 650 atoms

write_data  end.data                                   # write a lammps.data file with the final configuration, can be used to start new simulations
System init for write_data ...
PPPM initialization ...
  G vector (1/distance) = 0.30520329
  grid = 16 16 16
  stencil order = 5
  estimated absolute RMS force accuracy = 0.0030333252
  estimated relative force accuracy = 9.1347686e-06
  3d grid and FFT values/proc = 2475 256
Generated 5 of 6 mixed pair_coeff terms from arithmetic mixing rule
